Version 4
SHEET 1 1664 680
WIRE 320 -256 160 -256
WIRE 320 -208 320 -256
WIRE 160 -160 160 -256
WIRE 96 -112 -32 -112
WIRE 320 -64 320 -128
WIRE -32 -48 -32 -112
WIRE 160 48 160 -64
WIRE -32 96 -32 32
FLAG 160 48 0
FLAG 320 -64 0
FLAG -32 96 0
SYMBOL npn 96 -160 R0
SYMATTR InstName Q1
SYMATTR Value rNPN
SYMBOL voltage 320 -224 R0
SYMATTR InstName VCC
SYMATTR Value 2.5
SYMBOL voltage -32 -64 R0
SYMATTR InstName VIN
SYMATTR Value 0
TEXT 168 -16 Left 2 !.model rNPN NPN(IS=5E-16 Bf=100 VAf=5)
TEXT -304 -64 Left 2 !.dc VIN 0 1.8 0.0005
TEXT -32 200 Left 2 ;Ans) See the answer in 4_59_b.asc
