Version 4
SHEET 1 880 680
WIRE 144 -96 -272 -96
WIRE 336 -96 144 -96
WIRE 144 -48 144 -96
WIRE 336 -32 336 -96
WIRE 144 80 144 32
WIRE 224 80 144 80
WIRE 336 96 336 48
WIRE 144 128 144 80
WIRE 80 176 -16 176
WIRE -16 224 -16 176
WIRE -272 288 -272 -96
WIRE 144 320 144 224
WIRE 144 320 80 320
WIRE -336 336 -432 336
WIRE -16 336 -16 304
WIRE -432 384 -432 336
WIRE -272 432 -272 384
WIRE 80 432 80 320
WIRE 80 432 -272 432
WIRE -272 448 -272 432
WIRE -432 544 -432 464
WIRE -272 560 -272 528
FLAG -16 336 0
FLAG 336 96 0
FLAG 224 80 Vout
FLAG -272 560 0
FLAG -432 544 0
SYMBOL npn 80 128 R0
SYMATTR InstName Q2
SYMATTR Value rNPN2
SYMBOL voltage -16 208 R0
SYMATTR InstName VB
SYMATTR Value 1.5
SYMBOL voltage 336 -48 R0
SYMATTR InstName VCC
SYMATTR Value 2.5
SYMBOL res 128 -64 R0
SYMATTR InstName RC
SYMATTR Value 1k
SYMBOL npn -336 288 R0
SYMATTR InstName Q1
SYMATTR Value rNPN1
SYMBOL res -288 432 R0
SYMATTR InstName RC1
SYMATTR Value 1k
SYMBOL voltage -432 368 R0
SYMATTR InstName VIN
SYMATTR Value 0
TEXT 184 160 Left 2 !.model rNPN2 NPN(IS=5E-16 Bf=100 VAf=5)
TEXT -48 544 Left 2 ;Ans) When VIN = 1.4980V, the collector currents of Q1 and Q2 are equal
TEXT -48 512 Left 2 !.dc VIN 0 2.5 0.01
TEXT -256 408 Left 2 !.model rNPN1 NPN(IS=5E-16 Bf=100 VAf=5)
